AquaCrop 6.1 (May 2018) - Output created on (date) : 26/01/2021   at (time) : 11:25:00
Net Irrigation Requirement

** Run number:  1
   Day Month  Year   DAP Stage        E        Trx        ET      Rain      Inet
                                      mm        mm        mm        mm        mm
    28     3  1996     1    1        5.9       0.0       5.9       0.0       1.2
    29     3  1996     2    1        3.4       0.0       3.4       0.0       0.0
    30     3  1996     3    1        2.4       0.0       2.4       0.0       0.0
    31     3  1996     4    1        1.9       0.0       1.9       0.0       0.0
     1     4  1996     5    1        1.5       0.1       1.5       0.0      15.1
     2     4  1996     6    2        5.3       0.1       5.4       0.0       6.2
     3     4  1996     7    2        5.3       0.1       5.4       0.0       7.7
     4     4  1996     8    2        6.1       0.2       6.3       0.0       8.5
     5     4  1996     9    2        5.9       0.2       6.0       0.0       7.1
     6     4  1996    10    2        6.3       0.3       6.6       0.0       8.9
     7     4  1996    11    2        4.6       0.2       4.8       0.0       8.9
     8     4  1996    12    2        5.5       0.3       5.9       0.0       9.6
     9     4  1996    13    2        4.8       0.4       5.2       0.0       7.1
    10     4  1996    14    2        6.5       0.5       7.0      15.4       0.0
    11     4  1996    15    2        4.7       0.5       5.2       0.3       5.5
    12     4  1996    16    2        6.2       0.7       6.9       4.3       9.4
    13     4  1996    17    2        4.4       0.8       5.3       0.0      11.4
    14     4  1996    18    2        6.2       1.2       7.3      18.4       0.0
    15     4  1996    19    2        2.8       0.7       3.5       0.4       0.5
    16     4  1996    20    2        3.5       1.6       5.1       0.0       5.8
    17     4  1996    21    2        3.2       1.9       5.1       0.0       7.6
    18     4  1996    22    2        3.4       2.7       6.1       0.0      12.4
    19     4  1996    23    2        2.8       3.0       5.8       0.0      13.9
    20     4  1996    24    2        2.3       3.6       5.9       0.0      12.9
    21     4  1996    25    2        2.8       5.0       7.8       1.6      10.5
    22     4  1996    26    2        1.6       4.3       5.9       0.0       7.6
    23     4  1996    27    2        1.6       6.3       7.9       0.0       8.3
    24     4  1996    28    2        1.0       5.0       6.0       0.0       9.2
    25     4  1996    29    2        0.9       6.4       7.4       0.0      14.0
    26     4  1996    30    2        0.8       7.5       8.3       0.0      16.1
    27     4  1996    31    2        0.7       8.1       8.8       0.0      15.3
    28     4  1996    32    2        0.5       7.5       8.0       0.0      11.9
    29     4  1996    33    2        0.5       8.6       9.0       0.0      10.6
    30     4  1996    34    2        0.4       8.9       9.3       0.0       9.6
     1     5  1996    35    2        0.4      11.0      11.4       0.0      14.4
     2     5  1996    36    2        0.2       8.8       9.0       0.0      15.6
     3     5  1996    37    2        0.2       9.4       9.7       0.0      17.9
     4     5  1996    38    2        0.2      10.6      10.8       0.0      18.6
     5     5  1996    39    2        0.2       8.9       9.0       0.0      14.8
     6     5  1996    40    2        0.1       9.0       9.1       0.0      12.7
     7     5  1996    41    2        0.1      10.0      10.1       0.0      11.8
     8     5  1996    42    2        0.1      10.4      10.5       0.0      11.1
     9     5  1996    43    2        0.1      10.7      10.8       0.0      10.9
    10     5  1996    44    2        0.1      10.5      10.6       0.0      11.2
    11     5  1996    45    2        0.1      11.2      11.2       0.0      15.5
    12     5  1996    46    2        0.1      10.0      10.0       0.0      16.9
    13     5  1996    47    2        0.1       9.7       9.8       0.0      17.7
    14     5  1996    48    2        0.1      10.4      10.5       0.0      17.7
    15     5  1996    49    3        0.1       7.9       8.0       0.0      13.4
    16     5  1996    50    3        0.1       9.0       9.1       0.0      12.3
    17     5  1996    51    3        0.1      10.1      10.2       0.0      11.7
    18     5  1996    52    3        0.1       9.3       9.3       0.0       9.8
    19     5  1996    53    3        0.1       8.9       8.9       0.0       9.0
    20     5  1996    54    3        0.0       7.2       7.3       0.0       7.7
    21     5  1996    55    3        0.1       8.9       9.0       0.0      12.9
    22     5  1996    56    3        0.0       8.6       8.7       0.0      15.5
    23     5  1996    57    3        0.0       7.9       7.9       0.0      16.0
    24     5  1996    58    3        0.1       9.2       9.2       0.0      16.6
    25     5  1996    59    4        0.0       8.7       8.8       0.0      14.3
    26     5  1996    60    4        0.1       9.1       9.2       0.0      12.4
    27     5  1996    61    4        0.1       9.3       9.3       5.6       5.3
    28     5  1996    62    4        0.0       8.1       8.2       0.0       8.7
    29     5  1996    63    4        0.1       9.7       9.8       0.0       9.9
    30     5  1996    64    4        0.1       9.7       9.8       0.0       9.8
    31     5  1996    65    4        0.0       7.2       7.2       0.0      11.0
     1     6  1996    66    4        0.0       8.0       8.0       3.0      11.6
     2     6  1996    67    4        0.0       6.5       6.5       0.0      14.4
     3     6  1996    68    4        0.0       5.7       5.7       0.0      13.2
     4     6  1996    69    4        0.0       6.4       6.5       0.0      12.1
     5     6  1996    70    4        0.0       7.6       7.6      18.4       0.0
     6     6  1996    71    4        0.0       4.8       4.9       0.0       1.7
     7     6  1996    72    4        0.0       7.8       7.9       0.0       9.2
     8     6  1996    73    4        0.0       6.8       6.8       0.0       7.1
     9     6  1996    74    4        0.0       8.1       8.1       0.0       8.2
    10     6  1996    75    4        0.1       5.6       5.6       6.6       0.0
    11     6  1996    76    4        0.1       6.0       6.1       8.0       0.0
    12     6  1996    77    4        0.1       2.7       2.8       0.0       0.7
    13     6  1996    78    4        0.2       4.1       4.3       3.0       1.3
    14     6  1996    79    4        0.3       4.1       4.3       0.0       4.3
    15     6  1996    80    4        0.4       4.1       4.5       4.0       0.5
    16     6  1996    81    4        0.3       3.1       3.4       1.5       1.9
    17     6  1996    82    4        0.7       4.7       5.4       0.0       5.4
    18     6  1996    83    4        0.8       4.2       5.0       0.0       5.0
    19     6  1996    84    4        0.9       3.2       4.1       2.0       2.1
    20     6  1996    85    4        0.9       2.3       3.1       3.6       0.0
    21     6  1996    86    4        1.6       3.0       4.6       0.0       4.3
    22     6  1996    87    4        2.0       2.3       4.3       0.0       4.3
    23     6  1996    88    4        2.5       1.3       3.8       0.0       3.8
    24     6  1996    89    4        2.8       0.4       3.2       0.0       3.2
    25     6  1996    90    4        4.2       0.0       4.2      35.4       0.0
    26     6  1996    91    4        4.6       0.0       4.6       0.0       0.0

Legend

DAP          : Days after planting
Stage        : 0: before/after planting
Stage        : 1: emergence or transplant recovery
Stage        : 2: vegetative stage
Stage        : 3: flowering
Stage        : 4: yield formation and ripening
E            : Soil evaporation
Trx          : Maximum crop transpiration
ET           : Evapotranspiration (E+Trx)
Rain         : Rainfall
Inet         : Net irrigation requirement
