AquaCrop 6.1 (May 2018) - Output created on (date) : 26/01/2021   at (time) : 11:25:00
Crop development and production

** Run number:  1
   Day Month  Year   DAP Stage    GD       Z     StExp  StSto  StSen StSalt StWeed   CC      CCw     StTr  Kc(Tr)     Trx      Tr       TrW  Tr/Trx   WP    Biomass     HI  YieldPart  Brelative   WPet
                                °C-day     m       %      %      %      %      %      %       %       %       -        mm       mm       mm    %     g/m2    ton/ha      %    ton/ha       %      kg/m3
    28     3  1996     1    1    17.0    0.30     -9     -9     -9      0     -9     0.0     0.0      0    -9.00      0.0      0.0      0.0   100    33.5     0.000    -9.9    0.000       -9      0.00
    29     3  1996     2    1    18.0    0.30     -9     -9     -9      0     -9     0.0     0.0      0    -9.00      0.0      0.0      0.0   100    33.5     0.000    -9.9    0.000       -9      0.00
    30     3  1996     3    1    19.5    0.30     -9     -9     -9      0     -9     0.0     0.0      0    -9.00      0.0      0.0      0.0   100    33.5     0.000    -9.9    0.000       -9      0.00
    31     3  1996     4    1    19.6    0.33     -9     -9     -9      0     -9     0.0     0.0      0    -9.00      0.0      0.0      0.0   100    33.5     0.000    -9.9    0.000       -9      0.00
     1     4  1996     5    1    17.3    0.38     -9      0      0      0      0     0.6     0.6      0     0.01      0.1      0.1      0.1   100    33.5     0.003    -9.9    0.000      100      0.00
     2     4  1996     6    2    17.5    0.42     -9      0      0      0      0     0.7     0.7      0     0.01      0.1      0.1      0.1   100    33.5     0.008    -9.9    0.000      100      0.00
     3     4  1996     7    2    17.8    0.46      0      0      0      0      0     0.9     0.9      0     0.02      0.1      0.1      0.1   100    33.5     0.013    -9.9    0.000      100      0.00
     4     4  1996     8    2    18.0    0.50      0      0      0      0      0     1.1     1.1      0     0.02      0.2      0.2      0.2   100    33.5     0.019    -9.9    0.000      100      0.00
     5     4  1996     9    2    19.0    0.54      0      0      0      0      0     1.4     1.4      0     0.02      0.2      0.2      0.2   100    33.5     0.028    -9.9    0.000      100      0.00
     6     4  1996    10    2    18.9    0.58      0      0      0      0      0     1.8     1.8      0     0.03      0.3      0.3      0.3   100    33.5     0.038    -9.9    0.000      100      0.00
     7     4  1996    11    2    17.3    0.61      0      0      0      0      0     2.2     2.2      0     0.04      0.2      0.2      0.2   100    33.5     0.051    -9.9    0.000      100      0.00
     8     4  1996    12    2    17.3    0.64      0      0      0      0      0     2.7     2.7      0     0.05      0.3      0.3      0.3   100    33.5     0.067    -9.9    0.000      100      0.00
     9     4  1996    13    2    18.8    0.68      0      0      0      0      0     3.4     3.4      0     0.06      0.4      0.4      0.4   100    33.5     0.088    -9.9    0.000      100      0.00
    10     4  1996    14    2    17.8    0.71      0      0      0      0      0     4.3     4.3      0     0.08      0.5      0.5      0.5   100    33.5     0.113    -9.9    0.000      100      0.00
    11     4  1996    15    2    17.5    0.74      0      0      0      0      0     5.3     5.3      0     0.09      0.5      0.5      0.5   100    33.5     0.144    -9.9    0.000      100      0.00
    12     4  1996    16    2    17.3    0.77      0      0      0      0      0     6.6     6.6      0     0.11      0.7      0.7      0.7   100    33.5     0.182    -9.9    0.000      100      0.00
    13     4  1996    17    2    17.9    0.80      0      0      0      0      0     8.2     8.2      0     0.14      0.8      0.8      0.8   100    33.5     0.230    -9.9    0.000      100      0.00
    14     4  1996    18    2    16.3    0.83      0      0      0      0      0    10.1    10.1      0     0.17      1.2      1.2      1.2   100    33.5     0.287    -9.9    0.000      100      0.00
    15     4  1996    19    2    16.3    0.86      0      0      0      0      0    12.4    12.4      0     0.21      0.7      0.7      0.7   100    33.5     0.357    -9.9    0.000      100      0.00
    16     4  1996    20    2    17.3    0.89      0      0      0      0      0    15.3    15.3      0     0.25      1.6      1.6      1.6   100    33.5     0.442    -9.9    0.000      100      0.00
    17     4  1996    21    2    17.8    0.92      0      0      0      0      0    19.1    19.1      0     0.31      1.9      1.9      1.9   100    33.5     0.546    -9.9    0.000      100      0.00
    18     4  1996    22    2    18.4    0.95      0      0      0      0      0    24.1    24.1      0     0.38      2.7      2.7      2.7   100    33.5     0.673    -9.9    0.000      100      0.00
    19     4  1996    23    2    18.9    0.98      0      0      0      0      0    30.5    30.5      0     0.46      3.0      3.0      3.0   100    33.5     0.827    -9.9    0.000      100      0.00
    20     4  1996    24    2    19.3    1.01      0      0      0      0      0    38.8    38.8      0     0.56      3.6      3.6      3.6   100    33.5     1.015    -9.9    0.000      100      0.00
    21     4  1996    25    2    19.5    1.04      0      0      0      0      0    49.4    49.4      0     0.67      5.0      5.0      5.0   100    33.5     1.241    -9.9    0.000      100      0.00
    22     4  1996    26    2    17.8    1.06      0      0      0      0      0    58.7    58.7      0     0.76      4.3      4.3      4.3   100    33.5     1.496    -9.9    0.000      100      0.00
    23     4  1996    27    2    19.3    1.09      0      0      0      0      0    66.6    66.6      0     0.83      6.3      6.3      6.3   100    33.5     1.775    -9.9    0.000      100      0.00
    24     4  1996    28    2    18.8    1.12      0      0      0      0      0    72.8    72.8      0     0.88      5.0      5.0      5.0   100    33.5     2.069    -9.9    0.000      100      0.00
    25     4  1996    29    2    18.8    1.15      0      0      0      0      0    77.6    77.6      0     0.92      6.4      6.4      6.4   100    33.5     2.377    -9.9    0.000      100      0.00
    26     4  1996    30    2    19.0    1.18      0      0      0      0      0    81.5    81.5      0     0.94      7.5      7.5      7.5   100    33.5     2.693    -9.9    0.000      100      0.00
    27     4  1996    31    2    18.8    1.21      0      0      0      0      0    84.5    84.5      0     0.97      8.1      8.1      8.1   100    33.5     3.017    -9.9    0.000      100      0.00
    28     4  1996    32    2    19.8    1.23      0      0      0      0      0    87.0    87.0      0     0.98      7.5      7.5      7.5   100    33.5     3.347    -9.9    0.000      100      0.00
    29     4  1996    33    2    19.3    1.26      0      0      0      0      0    88.9    88.9      0     1.00      8.6      8.6      8.6   100    33.5     3.681    -9.9    0.000      100      0.00
    30     4  1996    34    2    20.1    1.29      0      0      0      0      0    90.5    90.5      0     1.01      8.9      8.9      8.9   100    33.5     4.019    -9.9    0.000      100      0.00
     1     5  1996    35    2    20.3    1.32      0      0      0      0      0    91.7    91.7      0     1.02     11.0     11.0     11.0   100    33.5     4.359    -9.9    0.000      100      0.00
     2     5  1996    36    2    19.6    1.35      0      0      0      0      0    92.6    92.6      0     1.02      8.8      8.8      8.8   100    33.5     4.702    -9.9    0.000      100      0.00
     3     5  1996    37    2    18.8    1.37      0      0      0      0      0    93.3    93.3      0     1.03      9.4      9.4      9.4   100    33.5     5.046    -9.9    0.000      100      0.00
     4     5  1996    38    2    18.4    1.40      0      0      0      0      0    93.8    93.8      0     1.03     10.6     10.6     10.6   100    33.5     5.391    -9.9    0.000      100      0.00
     5     5  1996    39    2    17.0    1.42      0      0      0      0      0    94.2    94.2      0     1.03      8.9      8.9      8.9   100    33.5     5.738    -9.9    0.000      100      0.00
     6     5  1996    40    2    18.5    1.45     -9      0      0      0      0    94.7    94.7      0     1.04      9.0      9.0      9.0   100    33.5     6.085    -9.9    0.000      100      0.00
     7     5  1996    41    2    18.9    1.47     -9      0      0      0      0    94.9    94.9      0     1.04     10.0     10.0     10.0   100    33.5     6.433    -9.9    0.000      100      0.00
     8     5  1996    42    2    19.5    1.50     -9      0      0      0      0    95.2    95.2      0     1.04     10.4     10.4     10.4   100    33.5     6.781    -9.9    0.000      100      0.00
     9     5  1996    43    2    19.3    1.53     -9      0      0      0      0    95.3    95.3      0     1.04     10.7     10.7     10.7   100    33.5     7.130    -9.9    0.000      100      0.00
    10     5  1996    44    2    19.8    1.55     -9      0      0      0      0    95.5    95.5      0     1.04     10.5     10.5     10.5   100    33.5     7.479    -9.9    0.000      100      0.00
    11     5  1996    45    2    18.8    1.58     -9      0      0      0      0    95.6    95.6      0     1.04     11.2     11.2     11.2   100    33.5     7.828    -9.9    0.000      100      0.00
    12     5  1996    46    2    18.0    1.60     -9      0      0      0      0    95.7    95.7      0     1.04     10.0     10.0     10.0   100    33.5     8.175    -9.9    0.000      100      0.00
    13     5  1996    47    2    17.8    1.63     -9      0      0      0      0    95.7    95.7      0     1.03      9.7      9.7      9.7   100    33.5     8.522    -9.9    0.000      100      0.00
    14     5  1996    48    2    19.0    1.65     -9      0      0      0      0    95.8    95.8      0     1.03     10.4     10.4     10.4   100    33.5     8.868    -9.9    0.000      100      0.00
    15     5  1996    49    3    19.4    1.68     -9      0      0      0      0    95.8    95.8      0     1.03      7.9      7.9      7.9   100    33.5     9.213    -9.9    0.000      100      0.00
    16     5  1996    50    3    19.6    1.70     -9      0      0      0      0    95.9    95.9      0     1.03      9.0      9.0      9.0   100    33.5     9.557    -9.9    0.000      100      0.00
    17     5  1996    51    3    19.3    1.73     -9      0      0      0      0    95.9    95.9      0     1.02     10.1     10.1     10.1   100    33.5     9.900     1.5    0.146      100      0.04
    18     5  1996    52    3    19.9    1.75     -9      0      0      0      0    95.9    95.9      0     1.02      9.3      9.3      9.3   100    33.5    10.243     1.8    0.183      100      0.05
    19     5  1996    53    3    20.3    1.78     -9      0      0      0      0    95.9    95.9      0     1.02      8.9      8.9      8.9   100    33.5    10.584     2.2    0.229      100      0.06
    20     5  1996    54    3    18.8    1.80     -9      0      0      0      0    96.0    96.0      0     1.02      7.2      7.2      7.2   100    33.5    10.924     2.6    0.285      100      0.07
    21     5  1996    55    3    18.8    1.83     -9      0      0      0      0    96.0    96.0      0     1.01      8.9      8.9      8.9   100    33.5    11.264     3.1    0.355      100      0.09
    22     5  1996    56    3    20.0    1.85     -9      0      0      0      0    96.0    96.0      0     1.01      8.6      8.6      8.6   100    33.5    11.603     3.8    0.440      100      0.11
    23     5  1996    57    3    20.0    1.88     -9      0      0      0      0    96.0    96.0      0     1.01      7.9      7.9      7.9   100    33.5    11.942     4.5    0.543      100      0.13
    24     5  1996    58    3    19.8    1.90     -9      0      0      0      0    96.0    96.0      0     1.01      9.2      9.2      9.2   100    33.5    12.280     5.4    0.667      100      0.15
    25     5  1996    59    4    21.0    1.93     -9      0      0      0      0    96.0    96.0      0     1.00      8.7      8.7      8.7   100    33.5    12.616     6.5    0.816      100      0.18
    26     5  1996    60    4    20.6    1.95     -9      0      0      0      0    96.0    96.0      0     1.00      9.1      9.1      9.1   100    33.5    12.952     7.7    0.992      100      0.22
    27     5  1996    61    4    18.2    1.98     -9      0      0      0      0    96.0    96.0      0     1.00      9.3      9.3      9.3   100    33.5    13.286     9.0    1.200      100      0.26
    28     5  1996    62    4    19.3    2.00     -9      0      0      0      0    96.0    96.0      0     0.99      8.1      8.1      8.1   100    33.5    13.619    10.5    1.426      100      0.30
    29     5  1996    63    4    19.9    2.02     -9      0      0      0      0    96.0    96.0      0     0.99      9.7      9.7      9.7   100    33.5    13.952    11.9    1.663      100      0.35
    30     5  1996    64    4    21.3    2.05     -9      0      0      0      0    96.0    96.0      0     0.99      9.7      9.7      9.7   100    33.5    14.283    13.4    1.908      100      0.39
    31     5  1996    65    4    20.3    2.08     -9      0      0      0      0    96.0    96.0      0     0.99      7.2      7.2      7.2   100    33.5    14.614    14.8    2.163      100      0.44
     1     6  1996    66    4    20.0    2.10     -9      0      0      0      0    96.0    96.0      0     0.98      8.0      8.0      8.0   100    33.5    14.943    16.2    2.428      100      0.48
     2     6  1996    67    4    20.0    2.12     -9      0      0      0      0    96.0    96.0      0     0.98      6.5      6.5      6.5   100    33.5    15.271    17.7    2.702      100      0.53
     3     6  1996    68    4    20.9    2.15     -9      0      0      0      0    96.0    96.0      0     0.98      5.7      5.7      5.7   100    33.5    15.599    19.1    2.985      100      0.58
     4     6  1996    69    4    20.0    2.17     -9      0      0      0      0    96.0    96.0      0     0.97      6.4      6.4      6.4   100    33.5    15.925    20.6    3.277      100      0.63
     5     6  1996    70    4    18.3    2.19     -9      0      0      0      0    96.0    96.0      0     0.97      7.6      7.6      7.6   100    33.5    16.251    22.0    3.579      100      0.68
     6     6  1996    71    4    19.0    2.22     -9      0      0      0      0    96.0    96.0      0     0.97      4.8      4.8      4.8   100    33.5    16.575    23.5    3.889      100      0.73
     7     6  1996    72    4    19.3    2.24     -9      0      0      0      0    96.0    96.0      0     0.96      7.8      7.8      7.8   100    33.5    16.898    24.9    4.209      100      0.78
     8     6  1996    73    4    19.0    2.26     -9      0      0      0      0    96.0    96.0      0     0.96      6.8      6.8      6.8   100    33.5    17.222    26.4    4.538      100      0.83
     9     6  1996    74    4    18.8    2.28     -9      0      0      0      0    96.0    96.0      0     0.96      8.1      8.1      8.1   100    33.5    17.544    27.8    4.876      100      0.88
    10     6  1996    75    4    19.3    2.30     -9      0     -9      0      0    95.2    95.2      0     0.94      5.6      5.6      5.6   100    33.5    17.860    29.2    5.222      100      0.93
    11     6  1996    76    4    18.7    2.30     -9      0     -9      0      0    94.0    94.0      0     0.92      6.0      6.0      6.0   100    33.5    18.170    30.7    5.575      100      0.98
    12     6  1996    77    4    17.8    2.30     -9      0     -9      0      0    92.7    92.7      0     0.90      2.7      2.7      2.7   100    33.5    18.471    32.1    5.933      100      1.04
    13     6  1996    78    4    19.0    2.30     -9      0     -9      0      0    90.9    90.9      0     0.87      4.1      4.1      4.1   100    33.5    18.761    33.6    6.298      100      1.09
    14     6  1996    79    4    19.3    2.30     -9      0     -9      0      0    88.8    88.8      0     0.83      4.1      4.1      4.1   100    33.5    19.040    35.0    6.666      100      1.15
    15     6  1996    80    4    19.0    2.30     -9      0     -9      0      0    86.2    86.2      0     0.79      4.1      4.1      4.1   100    33.5    19.306    36.5    7.038      100      1.20
    16     6  1996    81    4    18.3    2.30     -9      0     -9      0      0    83.2    83.2      0     0.74      3.1      3.1      3.1   100    33.5    19.555    37.9    7.411      100      1.26
    17     6  1996    82    4    18.8    2.30     -9      0     -9      0      0    79.4    79.4      0     0.69      4.7      4.7      4.7   100    33.5    19.787    39.3    7.784      100      1.31
    18     6  1996    83    4    19.2    2.30     -9      0     -9      0      0    74.8    74.8      0     0.62      4.2      4.2      4.2   100    33.5    19.995    40.8    8.155      100      1.36
    19     6  1996    84    4    18.8    2.30     -9      0     -9      0      0    69.3    69.3      0     0.55      3.2      3.2      3.2   100    33.5    20.179    42.2    8.521      100      1.41
    20     6  1996    85    4    18.3    2.30     -9      0     -9      0      0    62.8    62.8      0     0.46      2.3      2.3      2.3   100    33.5    20.334    43.7    8.880      100      1.47
    21     6  1996    86    4    18.5    2.30     -9      0     -9      0      0    54.8    54.8      0     0.37      3.0      3.0      3.0   100    33.5    20.457    45.1    9.229      100      1.51
    22     6  1996    87    4    18.4    2.30     -9      0     -9      0      0    45.3    45.3      0     0.26      2.3      2.3      2.3   100    33.5    20.545    46.6    9.565      100      1.56
    23     6  1996    88    4    19.0    2.30     -9      0     -9      0      0    33.4    33.4      0     0.15      1.3      1.3      1.3   100    33.5    20.596    48.0    9.886      100      1.60
    24     6  1996    89    4    19.0    2.30     -9      0     -9      0      0    18.9    18.9      0     0.05      0.4      0.4      0.4   100    33.5    20.614    48.0    9.895      100      1.59
    25     6  1996    90    4    18.5    2.30     -9      0     -9      0      0     1.8     1.8      0     0.00      0.0      0.0      0.0   100    33.5    20.614    48.0    9.895      100      1.58
    26     6  1996    91    4    19.3    2.30     -9     -9     -9      0     -9     0.0     0.0      0    -9.00      0.0      0.0      0.0   100    33.5    20.614    48.0    9.895      100      1.58

Legend

DAP          : Days after planting
Stage        : 0: before/after planting
Stage        : 1: emergence or transplant recovery
Stage        : 2: vegetative stage
Stage        : 3: flowering
Stage        : 4: yield formation and ripening
GD           : Growing degrees
Z            : Effective rooting depth
StExp        : Percent water stress reducing leaf expansion
StSto        : Percent water stress inducing stomatal closure
StSen        : Percent water stress triggering early canopy senescence
StSalt       : Percent salinity stress
StWeed       : Relative cover of weeds
CC           : Green total Canopy Cover of crop and weeds
CCw          : Green crop Canopy Cover in weed infested field
StTr         : Percent temperature stress affecting crop transpiration
Kc(Tr)       : Crop coefficient for transpiration
Trx          : Maximum total transpiration of crop and weeds
Tr           : Total transpiration of crop and weeds
TrW          : Crop transpiration in weed infested field
Tr/Trx       : Relative total transpiration of crop and weeds (100 Tr/Trx)
WP           : Crop water productivity adjusted for CO2, soil fertility and products synthesized
Biomass      : Cumulative crop biomass
HI           : Harvest Index adjusted for failure of pollination, inadequate photosynthesis and water stress
Yield Part   : Crop yield (HI x Biomass)
Brelative    : Relative biomass (Reference: no water, no soil fertility, no soil salinity stress, no weed infestation)
WPet         : ET Water productivity for yield part (kg yield produced per m3 water evapotranspired)
