AquaCrop 6.1 (May 2018) - Output created on (date) : 26/01/2021   at (time) : 11:25:00
Soil Water balance

** Run number:  1
   Day Month  Year   DAP Stage     WCTot    Rain     Irri   Surf   Infilt   RO    Drain       CR    Zgwt       Ex       E     E/Ex    Trx       Tr  Tr/Trx    ETx      ET   ET/ETx
                                      mm      mm       mm     mm     mm     mm       mm       mm      m        mm       mm     %       mm       mm    %        mm      mm      %
    28     3  1996     1    1      430.3     0.0      1.2    0.0    0.0    0.0      0.0      0.0   -9.90      8.1      5.9    73      0.0      0.0   100      8.1     5.9     73
    29     3  1996     2    1      427.0     0.0      0.0    0.0    0.0    0.0      0.0      0.0   -9.90      7.7      3.4    44      0.0      0.0   100      7.7     3.4     44
    30     3  1996     3    1      424.5     0.0      0.0    0.0    0.0    0.0      0.0      0.0   -9.90      7.7      2.4    32      0.0      0.0   100      7.7     2.4     32
    31     3  1996     4    1      422.7     0.0      0.0    0.0    0.0    0.0      0.0      0.0   -9.90      7.5      1.9    25      0.0      0.0   100      7.5     1.9     25
     1     4  1996     5    1      436.2     0.0     15.1    0.0    0.0    0.0      0.0      0.0   -9.90      7.2      1.5    20      0.1      0.1   100      7.3     1.5     21
     2     4  1996     6    2      437.1     0.0      6.2    0.0    0.0    0.0      0.0      0.0   -9.90      7.1      5.3    75      0.1      0.1   100      7.1     5.4     75
     3     4  1996     7    2      439.4     0.0      7.7    0.0    0.0    0.0      0.0      0.0   -9.90      7.0      5.3    75      0.1      0.1   100      7.1     5.4     76
     4     4  1996     8    2      441.6     0.0      8.5    0.0    0.0    0.0      0.0      0.0   -9.90      8.5      6.1    72      0.2      0.2   100      8.7     6.3     72
     5     4  1996     9    2      442.7     0.0      7.1    0.0    0.0    0.0      0.0      0.0   -9.90      8.1      5.9    73      0.2      0.2   100      8.2     6.0     73
     6     4  1996    10    2      445.0     0.0      8.9    0.0    0.0    0.0      0.0      0.0   -9.90      9.0      6.3    71      0.3      0.3   100      9.2     6.6     72
     7     4  1996    11    2      449.0     0.0      8.9    0.0    0.0    0.0      0.0      0.0   -9.90      5.9      4.6    78      0.2      0.2   100      6.1     4.8     79
     8     4  1996    12    2      452.7     0.0      9.6    0.0    0.0    0.0      0.0      0.0   -9.90      7.5      5.5    74      0.3      0.3   100      7.8     5.9     75
     9     4  1996    13    2      454.7     0.0      7.1    0.0    0.0    0.0      0.0      0.0   -9.90      6.2      4.8    77      0.4      0.4   100      6.6     5.2     79
    10     4  1996    14    2      460.7    15.4      0.0    0.0   13.1    2.3      0.0      0.0   -9.90      6.5      6.5   100      0.5      0.5   100      7.0     7.0    100
    11     4  1996    15    2      461.3     0.3      5.5    0.0    0.3    0.0      0.0      0.0   -9.90      5.8      4.7    81      0.5      0.5   100      6.4     5.2     82
    12     4  1996    16    2      468.1     4.3      9.4    0.0    4.3    0.0      0.0      0.0   -9.90      6.4      6.2    97      0.7      0.7   100      7.1     6.9     97
    13     4  1996    17    2      474.2     0.0     11.4    0.0    0.0    0.0      0.0      0.0   -9.90      5.6      4.4    79      0.8      0.8   100      6.5     5.3     82
    14     4  1996    18    2      481.9    18.4      0.0    0.0   15.0    3.4      0.0      0.0   -9.90      6.2      6.2   100      1.2      1.2   100      7.3     7.3    100
    15     4  1996    19    2      479.2     0.4      0.5    0.0    0.4    0.0      0.0      0.0   -9.90      3.1      2.8    90      0.7      0.7   100      3.8     3.5     92
    16     4  1996    20    2      480.0     0.0      5.8    0.0    0.0    0.0      0.0      0.0   -9.90      5.3      3.5    66      1.6      1.6   100      7.0     5.1     74
    17     4  1996    21    2      482.4     0.0      7.6    0.0    0.0    0.0      0.0      0.0   -9.90      4.8      3.2    67      1.9      1.9   100      6.7     5.1     76
    18     4  1996    22    2      488.6     0.0     12.4    0.0    0.0    0.0      0.0      0.0   -9.90      5.1      3.4    67      2.7      2.7   100      7.8     6.1     78
    19     4  1996    23    2      496.7     0.0     13.9    0.0    0.0    0.0      0.0      0.0   -9.90      4.1      2.8    69      3.0      3.0   100      7.1     5.8     82
    20     4  1996    24    2      503.7     0.0     12.9    0.0    0.0    0.0      0.0      0.0   -9.90      3.3      2.3    70      3.6      3.6   100      6.9     5.9     86
    21     4  1996    25    2      508.0     1.6     10.5    0.0    1.6    0.0      0.0      0.0   -9.90      2.9      2.8    97      5.0      5.0   100      7.9     7.8     99
    22     4  1996    26    2      509.6     0.0      7.6    0.0    0.0    0.0      0.0      0.0   -9.90      1.7      1.6    92      4.3      4.3   100      6.1     5.9     98
    23     4  1996    27    2      510.0     0.0      8.3    0.0    0.0    0.0      0.0      0.0   -9.90      1.7      1.6    92      6.3      6.3   100      8.1     7.9     98
    24     4  1996    28    2      513.2     0.0      9.2    0.0    0.0    0.0      0.0      0.0   -9.90      1.0      1.0    95      5.0      5.0   100      6.0     6.0     99
    25     4  1996    29    2      519.9     0.0     14.0    0.0    0.0    0.0      0.0      0.0   -9.90      1.0      0.9    96      6.4      6.4   100      7.4     7.4     99
    26     4  1996    30    2      527.7     0.0     16.1    0.0    0.0    0.0      0.0      0.0   -9.90      0.9      0.8    96      7.5      7.5   100      8.3     8.3    100
    27     4  1996    31    2      534.2     0.0     15.3    0.0    0.0    0.0      0.0      0.0   -9.90      0.7      0.7    97      8.1      8.1   100      8.9     8.8    100
    28     4  1996    32    2      538.1     0.0     11.9    0.0    0.0    0.0      0.0      0.0   -9.90      0.5      0.5    98      7.5      7.5   100      8.0     8.0    100
    29     4  1996    33    2      539.6     0.0     10.6    0.0    0.0    0.0      0.0      0.0   -9.90      0.5      0.5    98      8.6      8.6   100      9.1     9.0    100
    30     4  1996    34    2      540.0     0.0      9.6    0.0    0.0    0.0      0.0      0.0   -9.90      0.4      0.4    98      8.9      8.9   100      9.3     9.3    100
     1     5  1996    35    2      543.0     0.0     14.4    0.0    0.0    0.0      0.0      0.0   -9.90      0.4      0.4    98     11.0     11.0   100     11.4    11.4    100
     2     5  1996    36    2      549.6     0.0     15.6    0.0    0.0    0.0      0.0      0.0   -9.90      0.3      0.2    99      8.8      8.8   100      9.0     9.0    100
     3     5  1996    37    2      557.9     0.0     17.9    0.0    0.0    0.0      0.0      0.0   -9.90      0.2      0.2    99      9.4      9.4   100      9.7     9.7    100
     4     5  1996    38    2      565.7     0.0     18.6    0.0    0.0    0.0      0.0      0.0   -9.90      0.2      0.2    99     10.6     10.6   100     10.8    10.8    100
     5     5  1996    39    2      571.5     0.0     14.8    0.0    0.0    0.0      0.0      0.0   -9.90      0.2      0.2   100      8.9      8.9   100      9.0     9.0    100
     6     5  1996    40    2      575.1     0.0     12.7    0.0    0.0    0.0      0.0      0.0   -9.90      0.1      0.1   100      9.0      9.0   100      9.1     9.1    100
     7     5  1996    41    2      576.8     0.0     11.8    0.0    0.0    0.0      0.0      0.0   -9.90      0.1      0.1   100     10.0     10.0   100     10.1    10.1    100
     8     5  1996    42    2      577.4     0.0     11.1    0.0    0.0    0.0      0.0      0.0   -9.90      0.1      0.1   100     10.4     10.4   100     10.5    10.5    100
     9     5  1996    43    2      577.5     0.0     10.9    0.0    0.0    0.0      0.0      0.0   -9.90      0.1      0.1   100     10.7     10.7   100     10.8    10.8    100
    10     5  1996    44    2      578.1     0.0     11.2    0.0    0.0    0.0      0.0      0.0   -9.90      0.1      0.1   100     10.5     10.5   100     10.6    10.6    100
    11     5  1996    45    2      582.4     0.0     15.5    0.0    0.0    0.0      0.0      0.0   -9.90      0.1      0.1   100     11.2     11.2   100     11.2    11.2    100
    12     5  1996    46    2      589.3     0.0     16.9    0.0    0.0    0.0      0.0      0.0   -9.90      0.1      0.1   100     10.0     10.0   100     10.0    10.0    100
    13     5  1996    47    2      597.1     0.0     17.7    0.0    0.0    0.0      0.0      0.0   -9.90      0.1      0.1   100      9.7      9.7   100      9.8     9.8    100
    14     5  1996    48    2      604.4     0.0     17.7    0.0    0.0    0.0      0.0      0.0   -9.90      0.1      0.1   100     10.4     10.4   100     10.5    10.5    100
    15     5  1996    49    3      609.8     0.0     13.4    0.0    0.0    0.0      0.0      0.0   -9.90      0.1      0.1   100      7.9      7.9   100      8.0     8.0    100
    16     5  1996    50    3      613.0     0.0     12.3    0.0    0.0    0.0      0.0      0.0   -9.90      0.1      0.1   100      9.0      9.0   100      9.1     9.1    100
    17     5  1996    51    3      614.4     0.0     11.7    0.0    0.0    0.0      0.0      0.0   -9.90      0.1      0.1   100     10.1     10.1   100     10.2    10.2    100
    18     5  1996    52    3      614.9     0.0      9.8    0.0    0.0    0.0      0.0      0.0   -9.90      0.1      0.1   100      9.3      9.3   100      9.3     9.3    100
    19     5  1996    53    3      615.0     0.0      9.0    0.0    0.0    0.0      0.0      0.0   -9.90      0.1      0.1   100      8.9      8.9   100      8.9     8.9    100
    20     5  1996    54    3      615.4     0.0      7.7    0.0    0.0    0.0      0.0      0.0   -9.90      0.0      0.0   100      7.2      7.2   100      7.3     7.3    100
    21     5  1996    55    3      619.4     0.0     12.9    0.0    0.0    0.0      0.0      0.0   -9.90      0.1      0.1   100      8.9      8.9   100      9.0     9.0    100
    22     5  1996    56    3      626.2     0.0     15.5    0.0    0.0    0.0      0.0      0.0   -9.90      0.0      0.0   100      8.6      8.6   100      8.7     8.7    100
    23     5  1996    57    3      634.3     0.0     16.0    0.0    0.0    0.0      0.0      0.0   -9.90      0.0      0.0   100      7.9      7.9   100      7.9     7.9    100
    24     5  1996    58    3      641.7     0.0     16.6    0.0    0.0    0.0      0.0      0.0   -9.90      0.1      0.1   100      9.2      9.2   100      9.2     9.2    100
    25     5  1996    59    4      647.3     0.0     14.3    0.0    0.0    0.0      0.0      0.0   -9.90      0.0      0.0   100      8.7      8.7   100      8.8     8.8    100
    26     5  1996    60    4      650.5     0.0     12.4    0.0    0.0    0.0      0.0      0.0   -9.90      0.1      0.1   100      9.1      9.1   100      9.2     9.2    100
    27     5  1996    61    4      651.9     5.6      5.3    0.0    5.5    0.1      0.0      0.0   -9.90      0.1      0.1   100      9.3      9.3   100      9.3     9.3    100
    28     5  1996    62    4      652.4     0.0      8.7    0.0    0.0    0.0      0.0      0.0   -9.90      0.0      0.0   100      8.1      8.1   100      8.2     8.2    100
    29     5  1996    63    4      652.5     0.0      9.9    0.0    0.0    0.0      0.0      0.0   -9.90      0.1      0.1   100      9.7      9.7   100      9.8     9.8    100
    30     5  1996    64    4      652.5     0.0      9.8    0.0    0.0    0.0      0.0      0.0   -9.90      0.1      0.1   100      9.7      9.7   100      9.8     9.8    100
    31     5  1996    65    4      656.3     0.0     11.0    0.0    0.0    0.0      0.0      0.0   -9.90      0.0      0.0   100      7.2      7.2   100      7.2     7.2    100
     1     6  1996    66    4      662.9     3.0     11.6    0.0    3.0    0.0      0.0      0.0   -9.90      0.0      0.0   100      8.0      8.0   100      8.0     8.0    100
     2     6  1996    67    4      670.9     0.0     14.4    0.0    0.0    0.0      0.0      0.0   -9.90      0.0      0.0   100      6.5      6.5   100      6.5     6.5    100
     3     6  1996    68    4      678.4     0.0     13.2    0.0    0.0    0.0      0.0      0.0   -9.90      0.0      0.0   100      5.7      5.7   100      5.7     5.7    100
     4     6  1996    69    4      684.1     0.0     12.1    0.0    0.0    0.0      0.0      0.0   -9.90      0.0      0.0   100      6.4      6.4   100      6.5     6.5    100
     5     6  1996    70    4      691.5    18.4      0.0    0.0   15.0    3.4      0.0      0.0   -9.90      0.0      0.0   100      7.6      7.6   100      7.6     7.6    100
     6     6  1996    71    4      688.3     0.0      1.7    0.0    0.0    0.0      0.0      0.0   -9.90      0.0      0.0   100      4.8      4.8   100      4.9     4.9    100
     7     6  1996    72    4      689.6     0.0      9.2    0.0    0.0    0.0      0.0      0.0   -9.90      0.0      0.0   100      7.8      7.8   100      7.9     7.9    100
     8     6  1996    73    4      689.9     0.0      7.1    0.0    0.0    0.0      0.0      0.0   -9.90      0.0      0.0   100      6.8      6.8   100      6.8     6.8    100
     9     6  1996    74    4      690.0     0.0      8.2    0.0    0.0    0.0      0.0      0.0   -9.90      0.0      0.0   100      8.1      8.1   100      8.1     8.1    100
    10     6  1996    75    4      690.7     6.6      0.0    0.0    6.4    0.2      0.0      0.0   -9.90      0.1      0.1   100      5.6      5.6   100      5.6     5.6    100
    11     6  1996    76    4      692.1     8.0      0.0    0.0    7.6    0.4      0.0      0.0   -9.90      0.1      0.1   100      6.0      6.0   100      6.1     6.1    100
    12     6  1996    77    4      690.0     0.0      0.7    0.0    0.0    0.0      0.1      0.0   -9.90      0.1      0.1   100      2.7      2.7   100      2.8     2.8    100
    13     6  1996    78    4      690.0     3.0      1.3    0.0    3.0    0.0      0.0      0.0   -9.90      0.2      0.2   100      4.1      4.1   100      4.3     4.3    100
    14     6  1996    79    4      690.0     0.0      4.3    0.0    0.0    0.0      0.0      0.0   -9.90      0.3      0.3   100      4.1      4.1   100      4.3     4.3    100
    15     6  1996    80    4      690.0     4.0      0.5    0.0    4.0    0.0      0.0      0.0   -9.90      0.4      0.4   100      4.1      4.1   100      4.5     4.5    100
    16     6  1996    81    4      690.0     1.5      1.9    0.0    1.5    0.0      0.0      0.0   -9.90      0.3      0.3   100      3.1      3.1   100      3.4     3.4    100
    17     6  1996    82    4      690.0     0.0      5.4    0.0    0.0    0.0      0.0      0.0   -9.90      0.7      0.7   100      4.7      4.7   100      5.4     5.4    100
    18     6  1996    83    4      690.0     0.0      5.0    0.0    0.0    0.0      0.0      0.0   -9.90      0.9      0.8    99      4.2      4.2   100      5.0     5.0    100
    19     6  1996    84    4      690.0     2.0      2.1    0.0    2.0    0.0      0.0      0.0   -9.90      0.9      0.9   100      3.2      3.2   100      4.1     4.1    100
    20     6  1996    85    4      690.5     3.6      0.0    0.0    3.6    0.0      0.0      0.0   -9.90      0.9      0.9   100      2.3      2.3   100      3.1     3.1    100
    21     6  1996    86    4      690.0     0.0      4.3    0.0    0.0    0.0      0.1      0.0   -9.90      1.6      1.6   100      3.0      3.0   100      4.6     4.6    100
    22     6  1996    87    4      690.0     0.0      4.3    0.0    0.0    0.0      0.0      0.0   -9.90      2.0      2.0    98      2.3      2.3   100      4.4     4.3     99
    23     6  1996    88    4      690.0     0.0      3.8    0.0    0.0    0.0      0.0      0.0   -9.90      2.6      2.5    97      1.3      1.3   100      3.9     3.8     98
    24     6  1996    89    4      690.0     0.0      3.2    0.0    0.0    0.0      0.0      0.0   -9.90      3.0      2.8    95      0.4      0.4   100      3.3     3.2     96
    25     6  1996    90    4      709.1    35.4      0.0    0.0   23.4   12.0      0.0      0.0   -9.90      4.2      4.2   100      0.0      0.0   100      4.2     4.2    100
    26     6  1996    91    4      701.3     0.0      0.0    0.0    0.0    0.0      3.3      0.0   -9.90      4.6      4.6   100      0.0      0.0   100      4.6     4.6    100

Legend

DAP          : Days after planting
Stage        : 0: before/after planting
Stage        : 1: emergence or transplant recovery
Stage        : 2: vegetative stage
Stage        : 3: flowering
Stage        : 4: yield formation and ripening
WCTot        : Water content in total soil profile
Rain         : Rainfall
Irri         : Water applied by irrigation
Surf         : Stored water on soil surface between bunds
Infilt       : Infiltrated water in soil profile
RO           : Surface runoff
Drain        : Water drained out of the soil profile
CR           : Water moved upward by capillary rise
Zgwt         : Depth of the groundwater table (-9.90 if absent)
Ex           : Maximum soil evaporation
E            : Soil evaporation
E/Ex         : Relative soil evaporation (100 E/Ex)
Trx          : Maximum crop transpiration
Tr           : Total transpiration of crop and weeds
Tr/Trx       : Relative transpiration (100 Tr/Trx)
ETx          : Evapotranspiration maximale
ET           : Evapotranspiration
ET/ETx       : Evapotranspiration relative (100 ET/ETx)
