AquaCrop 6.1 (May 2018) - Output created on (date) : 26/01/2021   at (time) : 11:25:00
Soil Water content in soil profile (WC) and root zone (Wr)

** Run number:  1   -- Water content in soil profile (WCTot layer: 0.00 - 2.30 m) and root zone (Wr with Zx = 2.30 m)
   Day Month  Year   DAP Stage     WCTot   Wr(Zx)      Z       Wr    Wr(SAT)    Wr(FC)   Wr(exp)   Wr(sto)   Wr(sen)   Wr(PWP)
                                     mm       mm       m       mm        mm        mm        mm        mm        mm        mm
    28     3  1996     1    1     430.3    430.3    0.30     84.1     150.0      90.0      81.6      51.9      48.6      30.0
    29     3  1996     2    1     427.0    427.0    0.30     80.7     150.0      90.0      81.6      51.4      48.6      30.0
    30     3  1996     3    1     424.5    424.5    0.30     78.3     150.0      90.0      81.6      51.4      48.6      30.0
    31     3  1996     4    1     422.7    422.7    0.33     86.1     166.0      99.6      90.3      56.6      53.8      33.2
     1     4  1996     5    1     436.2    436.2    0.38    113.2     188.6     113.2     107.2      63.9      63.9      37.7
     2     4  1996     6    2     437.1    437.1    0.42    125.1     209.8     125.9     118.9      70.9      70.9      42.0
     3     4  1996     7    2     439.4    439.4    0.46    136.6     230.0     138.0     130.3      77.7      77.7      46.0
     4     4  1996     8    2     441.6    441.6    0.50    149.0     249.5     149.7     146.7      87.6      87.6      49.9
     5     4  1996     9    2     442.7    442.7    0.54    161.5     269.3     161.6     156.7      93.5      93.5      53.9
     6     4  1996    10    2     445.0    445.0    0.58    171.2     288.3     173.0     171.6     102.5     102.5      57.7
     7     4  1996    11    2     449.0    449.0    0.61    180.7     305.2     183.1     168.8     100.6     100.6      61.0
     8     4  1996    12    2     452.7    452.7    0.64    191.6     321.7     193.0     185.2     110.5     110.5      64.3
     9     4  1996    13    2     454.7    454.7    0.68    203.2     339.1     203.5     189.6     113.0     113.0      67.8
    10     4  1996    14    2     460.7    460.7    0.71    217.6     355.3     213.2     200.8     119.7     119.7      71.1
    11     4  1996    15    2     461.3    461.3    0.74    218.6     370.9     222.5     206.2     122.9     122.9      74.2
    12     4  1996    16    2     468.1    468.1    0.77    227.3     386.1     231.6     218.7     130.4     130.4      77.2
    13     4  1996    17    2     474.2    474.2    0.80    237.9     401.5     240.9     223.9     133.4     133.4      80.3
    14     4  1996    18    2     481.9    481.9    0.83    253.1     415.4     249.2     236.6     141.1     141.1      83.1
    15     4  1996    19    2     479.2    479.2    0.86    256.8     429.1     257.4     223.7     133.1     133.1      85.8
    16     4  1996    20    2     480.0    480.0    0.89    266.0     443.4     266.0     250.5     149.4     149.4      88.7
    17     4  1996    21    2     482.4    482.4    0.92    272.6     457.9     274.7     257.4     153.4     153.4      91.6
    18     4  1996    22    2     488.6    488.6    0.95    278.8     472.7     283.6     272.8     162.8     162.8      94.5
    19     4  1996    23    2     496.7    496.7    0.98    287.6     487.8     292.7     277.1     165.3     165.3      97.6
    20     4  1996    24    2     503.7    503.7    1.01    298.5     503.0     301.8     284.2     169.5     169.5     100.6
    21     4  1996    25    2     508.0    508.0    1.04    309.5     518.2     310.9     300.6     179.4     179.4     103.6
    22     4  1996    26    2     509.6    509.6    1.06    318.8     531.9     319.1     294.9     175.8     175.8     106.4
    23     4  1996    27    2     510.0    510.0    1.09    327.9     546.6     327.9     318.7     190.2     190.2     109.3
    24     4  1996    28    2     513.2    513.2    1.12    333.6     560.8     336.5     311.0     185.3     185.3     112.2
    25     4  1996    29    2     519.9    519.9    1.15    339.9     574.9     344.9     330.0     196.9     196.9     115.0
    26     4  1996    30    2     527.7    527.7    1.18    348.6     589.0     353.4     346.1     206.6     206.6     117.8
    27     4  1996    31    2     534.2    534.2    1.21    358.6     602.8     361.7     358.8     214.3     214.3     120.6
    28     4  1996    32    2     538.1    538.1    1.23    369.1     617.3     370.4     360.0     214.8     214.8     123.5
    29     4  1996    33    2     539.6    539.6    1.26    378.4     631.2     378.7     377.6     225.5     225.5     126.2
    30     4  1996    34    2     540.0    540.0    1.29    387.4     645.6     387.4     387.4     231.9     231.9     129.1
     1     5  1996    35    2     543.0    543.0    1.32    393.3     660.1     396.0     396.0     249.3     249.3     132.0
     2     5  1996    36    2     549.6    549.6    1.35    399.0     673.9     404.4     403.2     240.8     240.8     134.8
     3     5  1996    37    2     557.9    557.9    1.37    406.4     687.1     412.3     412.3     249.3     249.3     137.4
     4     5  1996    38    2     565.7    565.7    1.40    415.2     699.9     419.9     419.9     261.1     261.1     140.0
     5     5  1996    39    2     571.5    571.5    1.42    424.1     711.7     427.0     425.7     254.3     254.3     142.3
     6     5  1996    40    2     575.1    575.1    1.45    433.2     724.4     434.7     434.5     259.5     259.5     144.9
     7     5  1996    41    2     576.8    576.8    1.47    441.9     737.4     442.4     442.4     270.3     270.3     147.5
     8     5  1996    42    2     577.4    577.4    1.50    450.3     750.6     450.4     450.4     278.0     278.0     150.1
     9     5  1996    43    2     577.5    577.5    1.53    458.2     763.7     458.2     458.2     284.9     284.9     152.7
    10     5  1996    44    2     578.1    578.1    1.55    465.6     776.9     466.2     466.2     288.4     288.4     155.4
    11     5  1996    45    2     582.4    582.4    1.58    469.9     789.5     473.7     473.7     297.5     297.5     157.9
    12     5  1996    46    2     589.3    589.3    1.60    475.4     801.4     480.9     480.9     293.8     293.8     160.3
    13     5  1996    47    2     597.1    597.1    1.63    482.5     813.2     487.9     487.9     296.6     296.6     162.6
    14     5  1996    48    2     604.4    604.4    1.65    491.1     825.7     495.4     495.4     306.5     306.5     165.1
    15     5  1996    49    3     609.8    609.8    1.68    500.4     838.4     503.0     490.2     292.6     292.6     167.7
    16     5  1996    50    3     613.0    613.0    1.70    509.4     851.1     510.7     510.7     305.7     305.7     170.2
    17     5  1996    51    3     614.4    614.4    1.73    517.7     863.6     518.2     518.2     319.0     319.0     172.7
    18     5  1996    52    3     614.9    614.9    1.75    525.8     876.4     525.9     525.9     317.2     317.2     175.3
    19     5  1996    53    3     615.0    615.0    1.78    533.6     889.4     533.7     533.4     318.6     318.6     177.9
    20     5  1996    54    3     615.4    615.4    1.80    540.4     901.4     540.8     518.9     309.6     309.6     180.3
    21     5  1996    55    3     619.4    619.4    1.83    544.5     913.3     548.0     548.0     328.0     328.0     182.7
    22     5  1996    56    3     626.2    626.2    1.85    550.1     926.0     555.6     552.5     330.0     330.0     185.2
    23     5  1996    57    3     634.3    634.3    1.88    557.5     938.6     563.1     550.2     328.4     328.4     187.7
    24     5  1996    58    3     641.7    641.7    1.90    566.2     950.9     570.6     570.6     344.2     344.2     190.2
    25     5  1996    59    4     647.3    647.3    1.93    575.7     964.1     578.4     578.2     345.4     345.4     192.8
    26     5  1996    60    4     650.5    650.5    1.95    584.9     976.9     586.1     586.1     353.6     353.6     195.4
    27     5  1996    61    4     651.9    651.9    1.98    592.4     988.1     592.9     592.9     359.5     359.5     197.6
    28     5  1996    62    4     652.4    652.4    2.00    599.9    1000.0     600.0     592.2     353.6     353.6     200.0
    29     5  1996    63    4     652.5    652.5    2.02    607.3    1012.2     607.3     607.3     372.9     372.9     202.4
    30     5  1996    64    4     652.5    652.5    2.05    615.0    1025.2     615.1     615.1     377.7     377.7     205.0
    31     5  1996    65    4     656.3    656.3    2.08    619.1    1037.5     622.5     600.4     358.2     358.2     207.5
     1     6  1996    66    4     662.9    662.9    2.10    624.4    1049.6     629.8     620.0     370.2     370.2     209.9
     2     6  1996    67    4     670.9    670.9    2.12    631.4    1061.7     637.0     603.2     359.7     359.7     212.3
     3     6  1996    68    4     678.4    678.4    2.15    640.0    1074.3     644.6     597.4     356.0     356.0     214.9
     4     6  1996    69    4     684.1    684.1    2.17    648.9    1086.3     651.8     617.1     368.0     368.0     217.3
     5     6  1996    70    4     691.5    691.5    2.19    662.3    1097.2     658.3     643.2     383.9     383.9     219.4
     6     6  1996    71    4     688.3    688.3    2.22    664.0    1108.5     665.1     603.0     359.2     359.2     221.7
     7     6  1996    72    4     689.6    689.6    2.24    671.7    1120.0     672.0     661.6     395.0     395.0     224.0
     8     6  1996    73    4     689.9    689.9    2.26    678.7    1131.2     678.7     649.4     387.5     387.5     226.2
     9     6  1996    74    4     690.0    690.0    2.28    685.4    1142.3     685.4     679.9     406.1     406.1     228.5
    10     6  1996    75    4     690.7    690.7    2.30    690.7    1150.0     690.0     641.2     382.2     382.2     230.0
    11     6  1996    76    4     692.1    692.1    2.30    692.1    1150.0     690.0     651.6     388.6     388.6     230.0
    12     6  1996    77    4     690.0    690.0    2.30    690.0    1150.0     690.0     591.0     351.3     351.3     230.0
    13     6  1996    78    4     690.0    690.0    2.30    690.0    1150.0     690.0     620.4     369.4     369.4     230.0
    14     6  1996    79    4     690.0    690.0    2.30    690.0    1150.0     690.0     623.9     371.5     371.5     230.0
    15     6  1996    80    4     690.0    690.0    2.30    690.0    1150.0     690.0     629.1     374.7     374.7     230.0
    16     6  1996    81    4     690.0    690.0    2.30    690.0    1150.0     690.0     610.0     363.0     363.0     230.0
    17     6  1996    82    4     690.0    690.0    2.30    690.0    1150.0     690.0     656.8     391.8     391.8     230.0
    18     6  1996    83    4     690.0    690.0    2.30    690.0    1150.0     690.0     655.1     390.7     390.7     230.0
    19     6  1996    84    4     690.0    690.0    2.30    690.0    1150.0     690.0     641.2     382.2     382.2     230.0
    20     6  1996    85    4     690.5    690.5    2.30    690.5    1150.0     690.0     623.9     371.5     371.5     230.0
    21     6  1996    86    4     690.0    690.0    2.30    690.0    1150.0     690.0     681.0     406.7     406.7     230.0
    22     6  1996    87    4     690.0    690.0    2.30    690.0    1150.0     690.0     690.0     414.1     414.1     230.0
    23     6  1996    88    4     690.0    690.0    2.30    690.0    1150.0     690.0     688.0     410.9     410.9     230.0
    24     6  1996    89    4     690.0    690.0    2.30    690.0    1150.0     690.0     665.4     397.1     397.1     230.0
    25     6  1996    90    4     709.1    709.1    2.30    709.1    1150.0     690.0     670.6     400.3     400.3     230.0
    26     6  1996    91    4     701.3    701.3    2.30    701.3    1150.0     690.0     670.6     404.5     400.3     230.0

Legend

DAP          : Days after planting
Stage        : 0: before/after planting
Stage        : 1: emergence or transplant recovery
Stage        : 2: vegetative stage
Stage        : 3: flowering
Stage        : 4: yield formation and ripening
WCTot        : Water content in total soil profile (layer: 0.00 - 2.30 m)
Wr(Zx)       : Water content in maximum effective root zone (Zx = 2.30 m)
Z            : Effective rooting depth
Wr           : Water content in effective root zone
Wr(Sat)      : Water content in effective root zone if saturated
Wr(FC)       : Water content in effective root zone at field capacity
Wr(exp)      : Water content in effective root zone at upper threshold for leaf expansion
Wr(sto)      : Water content in effective root zone at upper threshold for stomatal closure
Wr(sen)      : Water content in effective root zone at upper threshold for early canopy senescence
Wr(PWP)      : Water content in effective root zone at permanent wilting point
