AquaCrop 6.1 (May 2018) - Output created on (date) : 26/01/2021   at (time) : 11:25:00
Soil Water Content (WC) at various depths (at center of compartments)

** Run number:  1
                 at depth (m):      0.05        0.17        0.32        0.47        0.63        0.80        1.00        1.20        1.43        1.68        1.93        2.17
   Day Month  Year   DAP Stage   WC1(vol%)   WC2(vol%)   WC3(vol%)   WC4(vol%)   WC5(vol%)   WC6(vol%)   WC7(vol%)   WC8(vol%)   WC9(vol%)  WC10(vol%)  WC11(vol%)  WC12(vol%)
    28     3  1996     1    1       24.1        30.0        30.0        25.6        21.9        17.5        15.0        15.0        15.0        15.0        15.0        15.0
    29     3  1996     2    1       20.7        30.0        30.0        25.6        21.9        17.5        15.0        15.0        15.0        15.0        15.0        15.0
    30     3  1996     3    1       18.3        30.0        30.0        25.6        21.9        17.5        15.0        15.0        15.0        15.0        15.0        15.0
    31     3  1996     4    1       16.4        30.0        30.0        25.6        21.9        17.5        15.0        15.0        15.0        15.0        15.0        15.0
     1     4  1996     5    1       30.0        30.0        30.0        25.6        21.9        17.5        15.0        15.0        15.0        15.0        15.0        15.0
     2     4  1996     6    2       30.0        30.0        30.0        26.2        21.9        17.5        15.0        15.0        15.0        15.0        15.0        15.0
     3     4  1996     7    2       30.0        30.0        30.0        27.7        21.9        17.5        15.0        15.0        15.0        15.0        15.0        15.0
     4     4  1996     8    2       30.0        30.0        30.0        29.2        21.9        17.5        15.0        15.0        15.0        15.0        15.0        15.0
     5     4  1996     9    2       30.0        30.0        30.0        29.9        21.9        17.5        15.0        15.0        15.0        15.0        15.0        15.0
     6     4  1996    10    2       30.0        30.0        30.0        30.0        23.3        17.5        15.0        15.0        15.0        15.0        15.0        15.0
     7     4  1996    11    2       30.0        30.0        30.0        30.0        26.0        17.5        15.0        15.0        15.0        15.0        15.0        15.0
     8     4  1996    12    2       30.0        30.0        30.0        30.0        28.5        17.5        15.0        15.0        15.0        15.0        15.0        15.0
     9     4  1996    13    2       30.0        30.0        30.0        30.0        29.8        17.5        15.0        15.0        15.0        15.0        15.0        15.0
    10     4  1996    14    2       36.1        30.0        30.0        30.0        29.8        17.5        15.0        15.0        15.0        15.0        15.0        15.0
    11     4  1996    15    2       30.0        30.0        30.0        30.0        30.0        20.7        15.0        15.0        15.0        15.0        15.0        15.0
    12     4  1996    16    2       30.0        30.0        30.0        30.0        30.0        24.0        15.0        15.0        15.0        15.0        15.0        15.0
    13     4  1996    17    2       30.0        30.0        30.0        30.0        30.0        27.1        15.0        15.0        15.0        15.0        15.0        15.0
    14     4  1996    18    2       37.7        30.0        30.0        30.0        30.0        27.1        15.0        15.0        15.0        15.0        15.0        15.0
    15     4  1996    19    2       30.0        30.0        30.0        30.0        30.0        29.6        15.0        15.0        15.0        15.0        15.0        15.0
    16     4  1996    20    2       30.0        30.0        30.0        30.0        30.0        30.0        15.0        15.0        15.0        15.0        15.0        15.0
    17     4  1996    21    2       30.0        30.0        30.0        30.0        30.0        30.0        16.2        15.0        15.0        15.0        15.0        15.0
    18     4  1996    22    2       30.0        30.0        30.0        30.0        30.0        30.0        19.3        15.0        15.0        15.0        15.0        15.0
    19     4  1996    23    2       30.0        30.0        30.0        30.0        30.0        30.0        23.4        15.0        15.0        15.0        15.0        15.0
    20     4  1996    24    2       30.0        30.0        30.0        30.0        30.0        30.0        26.9        15.0        15.0        15.0        15.0        15.0
    21     4  1996    25    2       30.0        30.0        30.0        30.0        30.0        30.0        29.0        15.0        15.0        15.0        15.0        15.0
    22     4  1996    26    2       30.0        30.0        30.0        30.0        30.0        30.0        29.8        15.0        15.0        15.0        15.0        15.0
    23     4  1996    27    2       30.0        30.0        30.0        30.0        30.0        30.0        30.0        15.0        15.0        15.0        15.0        15.0
    24     4  1996    28    2       30.0        30.0        30.0        30.0        30.0        30.0        30.0        16.6        15.0        15.0        15.0        15.0
    25     4  1996    29    2       30.0        30.0        30.0        30.0        30.0        30.0        30.0        19.9        15.0        15.0        15.0        15.0
    26     4  1996    30    2       30.0        30.0        30.0        30.0        30.0        30.0        30.0        23.9        15.0        15.0        15.0        15.0
    27     4  1996    31    2       30.0        30.0        30.0        30.0        30.0        30.0        30.0        27.1        15.0        15.0        15.0        15.0
    28     4  1996    32    2       30.0        30.0        30.0        30.0        30.0        30.0        30.0        29.1        15.0        15.0        15.0        15.0
    29     4  1996    33    2       30.0        30.0        30.0        30.0        30.0        30.0        30.0        29.8        15.0        15.0        15.0        15.0
    30     4  1996    34    2       30.0        30.0        30.0        30.0        30.0        30.0        30.0        30.0        15.0        15.0        15.0        15.0
     1     5  1996    35    2       30.0        30.0        30.0        30.0        30.0        30.0        30.0        30.0        16.2        15.0        15.0        15.0
     2     5  1996    36    2       30.0        30.0        30.0        30.0        30.0        30.0        30.0        30.0        18.8        15.0        15.0        15.0
     3     5  1996    37    2       30.0        30.0        30.0        30.0        30.0        30.0        30.0        30.0        22.2        15.0        15.0        15.0
     4     5  1996    38    2       30.0        30.0        30.0        30.0        30.0        30.0        30.0        30.0        25.3        15.0        15.0        15.0
     5     5  1996    39    2       30.0        30.0        30.0        30.0        30.0        30.0        30.0        30.0        27.6        15.0        15.0        15.0
     6     5  1996    40    2       30.0        30.0        30.0        30.0        30.0        30.0        30.0        30.0        29.0        15.0        15.0        15.0
     7     5  1996    41    2       30.0        30.0        30.0        30.0        30.0        30.0        30.0        30.0        29.7        15.0        15.0        15.0
     8     5  1996    42    2       30.0        30.0        30.0        30.0        30.0        30.0        30.0        30.0        29.9        15.0        15.0        15.0
     9     5  1996    43    2       30.0        30.0        30.0        30.0        30.0        30.0        30.0        30.0        30.0        15.0        15.0        15.0
    10     5  1996    44    2       30.0        30.0        30.0        30.0        30.0        30.0        30.0        30.0        30.0        15.2        15.0        15.0
    11     5  1996    45    2       30.0        30.0        30.0        30.0        30.0        30.0        30.0        30.0        30.0        16.9        15.0        15.0
    12     5  1996    46    2       30.0        30.0        30.0        30.0        30.0        30.0        30.0        30.0        30.0        19.7        15.0        15.0
    13     5  1996    47    2       30.0        30.0        30.0        30.0        30.0        30.0        30.0        30.0        30.0        22.9        15.0        15.0
    14     5  1996    48    2       30.0        30.0        30.0        30.0        30.0        30.0        30.0        30.0        30.0        25.7        15.0        15.0
    15     5  1996    49    3       30.0        30.0        30.0        30.0        30.0        30.0        30.0        30.0        30.0        27.9        15.0        15.0
    16     5  1996    50    3       30.0        30.0        30.0        30.0        30.0        30.0        30.0        30.0        30.0        29.2        15.0        15.0
    17     5  1996    51    3       30.0        30.0        30.0        30.0        30.0        30.0        30.0        30.0        30.0        29.8        15.0        15.0
    18     5  1996    52    3       30.0        30.0        30.0        30.0        30.0        30.0        30.0        30.0        30.0        30.0        15.0        15.0
    19     5  1996    53    3       30.0        30.0        30.0        30.0        30.0        30.0        30.0        30.0        30.0        30.0        15.0        15.0
    20     5  1996    54    3       30.0        30.0        30.0        30.0        30.0        30.0        30.0        30.0        30.0        30.0        15.2        15.0
    21     5  1996    55    3       30.0        30.0        30.0        30.0        30.0        30.0        30.0        30.0        30.0        30.0        16.7        15.0
    22     5  1996    56    3       30.0        30.0        30.0        30.0        30.0        30.0        30.0        30.0        30.0        30.0        19.5        15.0
    23     5  1996    57    3       30.0        30.0        30.0        30.0        30.0        30.0        30.0        30.0        30.0        30.0        22.7        15.0
    24     5  1996    58    3       30.0        30.0        30.0        30.0        30.0        30.0        30.0        30.0        30.0        30.0        25.7        15.0
    25     5  1996    59    4       30.0        30.0        30.0        30.0        30.0        30.0        30.0        30.0        30.0        30.0        27.9        15.0
    26     5  1996    60    4       30.0        30.0        30.0        30.0        30.0        30.0        30.0        30.0        30.0        30.0        29.2        15.0
    27     5  1996    61    4       30.0        30.0        30.0        30.0        30.0        30.0        30.0        30.0        30.0        30.0        29.8        15.0
    28     5  1996    62    4       30.0        30.0        30.0        30.0        30.0        30.0        30.0        30.0        30.0        30.0        30.0        15.0
    29     5  1996    63    4       30.0        30.0        30.0        30.0        30.0        30.0        30.0        30.0        30.0        30.0        30.0        15.0
    30     5  1996    64    4       30.0        30.0        30.0        30.0        30.0        30.0        30.0        30.0        30.0        30.0        30.0        15.0
    31     5  1996    65    4       30.0        30.0        30.0        30.0        30.0        30.0        30.0        30.0        30.0        30.0        30.0        16.5
     1     6  1996    66    4       30.0        30.0        30.0        30.0        30.0        30.0        30.0        30.0        30.0        30.0        30.0        19.2
     2     6  1996    67    4       30.0        30.0        30.0        30.0        30.0        30.0        30.0        30.0        30.0        30.0        30.0        22.4
     3     6  1996    68    4       30.0        30.0        30.0        30.0        30.0        30.0        30.0        30.0        30.0        30.0        30.0        25.4
     4     6  1996    69    4       30.0        30.0        30.0        30.0        30.0        30.0        30.0        30.0        30.0        30.0        30.0        27.6
     5     6  1996    70    4       42.1        27.2        29.6        30.0        30.0        30.0        30.0        30.0        30.0        30.0        30.0        27.6
     6     6  1996    71    4       30.0        30.0        30.0        30.0        30.0        30.0        30.0        30.0        30.0        30.0        30.0        29.3
     7     6  1996    72    4       30.0        30.0        30.0        30.0        30.0        30.0        30.0        30.0        30.0        30.0        30.0        29.8
     8     6  1996    73    4       30.0        30.0        30.0        30.0        30.0        30.0        30.0        30.0        30.0        30.0        30.0        30.0
     9     6  1996    74    4       30.0        30.0        30.0        30.0        30.0        30.0        30.0        30.0        30.0        30.0        30.0        30.0
    10     6  1996    75    4       33.5        28.2        30.0        30.0        30.0        30.0        30.0        30.0        30.0        30.0        30.0        30.0
    11     6  1996    76    4       35.7        27.6        30.0        30.0        30.0        30.0        30.0        30.0        30.0        30.0        30.0        30.0
    12     6  1996    77    4       30.0        30.0        30.0        30.0        30.0        30.0        30.0        30.0        30.0        30.0        30.0        30.0
    13     6  1996    78    4       30.0        30.0        30.0        30.0        30.0        30.0        30.0        30.0        30.0        30.0        30.0        30.0
    14     6  1996    79    4       30.0        30.0        30.0        30.0        30.0        30.0        30.0        30.0        30.0        30.0        30.0        30.0
    15     6  1996    80    4       30.0        30.0        30.0        30.0        30.0        30.0        30.0        30.0        30.0        30.0        30.0        30.0
    16     6  1996    81    4       30.0        30.0        30.0        30.0        30.0        30.0        30.0        30.0        30.0        30.0        30.0        30.0
    17     6  1996    82    4       30.0        30.0        30.0        30.0        30.0        30.0        30.0        30.0        30.0        30.0        30.0        30.0
    18     6  1996    83    4       30.0        30.0        30.0        30.0        30.0        30.0        30.0        30.0        30.0        30.0        30.0        30.0
    19     6  1996    84    4       30.0        30.0        30.0        30.0        30.0        30.0        30.0        30.0        30.0        30.0        30.0        30.0
    20     6  1996    85    4       30.5        30.0        30.0        30.0        30.0        30.0        30.0        30.0        30.0        30.0        30.0        30.0
    21     6  1996    86    4       30.0        30.0        30.0        30.0        30.0        30.0        30.0        30.0        30.0        30.0        30.0        30.0
    22     6  1996    87    4       30.0        30.0        30.0        30.0        30.0        30.0        30.0        30.0        30.0        30.0        30.0        30.0
    23     6  1996    88    4       30.0        30.0        30.0        30.0        30.0        30.0        30.0        30.0        30.0        30.0        30.0        30.0
    24     6  1996    89    4       30.0        30.0        30.0        30.0        30.0        30.0        30.0        30.0        30.0        30.0        30.0        30.0
    25     6  1996    90    4       45.8        32.2        30.0        30.0        30.0        30.0        30.0        30.0        30.0        30.0        30.0        30.0
    26     6  1996    91    4       29.5        32.8        31.8        30.9        30.6        30.4        30.3        30.2        30.2        30.1        30.1        30.1

Legend

DAP          : Days after planting
Stage        : 0: before/after planting
Stage        : 1: emergence or transplant recovery
Stage        : 2: vegetative stage
Stage        : 3: flowering
Stage        : 4: yield formation and ripening
