AquaCrop 6.1 (May 2018) - Output created on (date) : 26/01/2021   at (time) : 11:25:00
Soil salinity in soil profile and root zone

** Run number:  1   -- Salt balance for soil profile (Total layer: 0.00 - 2.30 m) and soil salinity in root zone (Z)
   Day Month  Year   DAP Stage   SaltIn    SaltOut   SaltUp    SaltTot    SaltZ     Z       ECe    ECsw   StSalt  Zgwt    ECgw
                                 ton/ha    ton/ha    ton/ha    ton/ha    ton/ha     m      dS/m    dS/m      %     m      dS/m
    28     3  1996     1    1     0.000     0.000     0.000     0.000     0.000    0.30    0.00    0.00      0   -9.90   -9.00
    29     3  1996     2    1     0.000     0.000     0.000     0.000     0.000    0.30    0.00    0.00      0   -9.90   -9.00
    30     3  1996     3    1     0.000     0.000     0.000     0.000     0.000    0.30    0.00    0.00      0   -9.90   -9.00
    31     3  1996     4    1     0.000     0.000     0.000     0.000     0.000    0.33    0.00    0.00      0   -9.90   -9.00
     1     4  1996     5    1     0.000     0.000     0.000     0.000     0.000    0.38    0.00    0.00      0   -9.90   -9.00
     2     4  1996     6    2     0.000     0.000     0.000     0.000     0.000    0.42    0.00    0.00      0   -9.90   -9.00
     3     4  1996     7    2     0.000     0.000     0.000     0.000     0.000    0.46    0.00    0.00      0   -9.90   -9.00
     4     4  1996     8    2     0.000     0.000     0.000     0.000     0.000    0.50    0.00    0.00      0   -9.90   -9.00
     5     4  1996     9    2     0.000     0.000     0.000     0.000     0.000    0.54    0.00    0.00      0   -9.90   -9.00
     6     4  1996    10    2     0.000     0.000     0.000     0.000     0.000    0.58    0.00    0.00      0   -9.90   -9.00
     7     4  1996    11    2     0.000     0.000     0.000     0.000     0.000    0.61    0.00    0.00      0   -9.90   -9.00
     8     4  1996    12    2     0.000     0.000     0.000     0.000     0.000    0.64    0.00    0.00      0   -9.90   -9.00
     9     4  1996    13    2     0.000     0.000     0.000     0.000     0.000    0.68    0.00    0.00      0   -9.90   -9.00
    10     4  1996    14    2     0.000     0.000     0.000     0.000     0.000    0.71    0.00    0.00      0   -9.90   -9.00
    11     4  1996    15    2     0.000     0.000     0.000     0.000     0.000    0.74    0.00    0.00      0   -9.90   -9.00
    12     4  1996    16    2     0.000     0.000     0.000     0.000     0.000    0.77    0.00    0.00      0   -9.90   -9.00
    13     4  1996    17    2     0.000     0.000     0.000     0.000     0.000    0.80    0.00    0.00      0   -9.90   -9.00
    14     4  1996    18    2     0.000     0.000     0.000     0.000     0.000    0.83    0.00    0.00      0   -9.90   -9.00
    15     4  1996    19    2     0.000     0.000     0.000     0.000     0.000    0.86    0.00    0.00      0   -9.90   -9.00
    16     4  1996    20    2     0.000     0.000     0.000     0.000     0.000    0.89    0.00    0.00      0   -9.90   -9.00
    17     4  1996    21    2     0.000     0.000     0.000     0.000     0.000    0.92    0.00    0.00      0   -9.90   -9.00
    18     4  1996    22    2     0.000     0.000     0.000     0.000     0.000    0.95    0.00    0.00      0   -9.90   -9.00
    19     4  1996    23    2     0.000     0.000     0.000     0.000     0.000    0.98    0.00    0.00      0   -9.90   -9.00
    20     4  1996    24    2     0.000     0.000     0.000     0.000     0.000    1.01    0.00    0.00      0   -9.90   -9.00
    21     4  1996    25    2     0.000     0.000     0.000     0.000     0.000    1.04    0.00    0.00      0   -9.90   -9.00
    22     4  1996    26    2     0.000     0.000     0.000     0.000     0.000    1.06    0.00    0.00      0   -9.90   -9.00
    23     4  1996    27    2     0.000     0.000     0.000     0.000     0.000    1.09    0.00    0.00      0   -9.90   -9.00
    24     4  1996    28    2     0.000     0.000     0.000     0.000     0.000    1.12    0.00    0.00      0   -9.90   -9.00
    25     4  1996    29    2     0.000     0.000     0.000     0.000     0.000    1.15    0.00    0.00      0   -9.90   -9.00
    26     4  1996    30    2     0.000     0.000     0.000     0.000     0.000    1.18    0.00    0.00      0   -9.90   -9.00
    27     4  1996    31    2     0.000     0.000     0.000     0.000     0.000    1.21    0.00    0.00      0   -9.90   -9.00
    28     4  1996    32    2     0.000     0.000     0.000     0.000     0.000    1.23    0.00    0.00      0   -9.90   -9.00
    29     4  1996    33    2     0.000     0.000     0.000     0.000     0.000    1.26    0.00    0.00      0   -9.90   -9.00
    30     4  1996    34    2     0.000     0.000     0.000     0.000     0.000    1.29    0.00    0.00      0   -9.90   -9.00
     1     5  1996    35    2     0.000     0.000     0.000     0.000     0.000    1.32    0.00    0.00      0   -9.90   -9.00
     2     5  1996    36    2     0.000     0.000     0.000     0.000     0.000    1.35    0.00    0.00      0   -9.90   -9.00
     3     5  1996    37    2     0.000     0.000     0.000     0.000     0.000    1.37    0.00    0.00      0   -9.90   -9.00
     4     5  1996    38    2     0.000     0.000     0.000     0.000     0.000    1.40    0.00    0.00      0   -9.90   -9.00
     5     5  1996    39    2     0.000     0.000     0.000     0.000     0.000    1.42    0.00    0.00      0   -9.90   -9.00
     6     5  1996    40    2     0.000     0.000     0.000     0.000     0.000    1.45    0.00    0.00      0   -9.90   -9.00
     7     5  1996    41    2     0.000     0.000     0.000     0.000     0.000    1.47    0.00    0.00      0   -9.90   -9.00
     8     5  1996    42    2     0.000     0.000     0.000     0.000     0.000    1.50    0.00    0.00      0   -9.90   -9.00
     9     5  1996    43    2     0.000     0.000     0.000     0.000     0.000    1.53    0.00    0.00      0   -9.90   -9.00
    10     5  1996    44    2     0.000     0.000     0.000     0.000     0.000    1.55    0.00    0.00      0   -9.90   -9.00
    11     5  1996    45    2     0.000     0.000     0.000     0.000     0.000    1.58    0.00    0.00      0   -9.90   -9.00
    12     5  1996    46    2     0.000     0.000     0.000     0.000     0.000    1.60    0.00    0.00      0   -9.90   -9.00
    13     5  1996    47    2     0.000     0.000     0.000     0.000     0.000    1.63    0.00    0.00      0   -9.90   -9.00
    14     5  1996    48    2     0.000     0.000     0.000     0.000     0.000    1.65    0.00    0.00      0   -9.90   -9.00
    15     5  1996    49    3     0.000     0.000     0.000     0.000     0.000    1.68    0.00    0.00      0   -9.90   -9.00
    16     5  1996    50    3     0.000     0.000     0.000     0.000     0.000    1.70    0.00    0.00      0   -9.90   -9.00
    17     5  1996    51    3     0.000     0.000     0.000     0.000     0.000    1.73    0.00    0.00      0   -9.90   -9.00
    18     5  1996    52    3     0.000     0.000     0.000     0.000     0.000    1.75    0.00    0.00      0   -9.90   -9.00
    19     5  1996    53    3     0.000     0.000     0.000     0.000     0.000    1.78    0.00    0.00      0   -9.90   -9.00
    20     5  1996    54    3     0.000     0.000     0.000     0.000     0.000    1.80    0.00    0.00      0   -9.90   -9.00
    21     5  1996    55    3     0.000     0.000     0.000     0.000     0.000    1.83    0.00    0.00      0   -9.90   -9.00
    22     5  1996    56    3     0.000     0.000     0.000     0.000     0.000    1.85    0.00    0.00      0   -9.90   -9.00
    23     5  1996    57    3     0.000     0.000     0.000     0.000     0.000    1.88    0.00    0.00      0   -9.90   -9.00
    24     5  1996    58    3     0.000     0.000     0.000     0.000     0.000    1.90    0.00    0.00      0   -9.90   -9.00
    25     5  1996    59    4     0.000     0.000     0.000     0.000     0.000    1.93    0.00    0.00      0   -9.90   -9.00
    26     5  1996    60    4     0.000     0.000     0.000     0.000     0.000    1.95    0.00    0.00      0   -9.90   -9.00
    27     5  1996    61    4     0.000     0.000     0.000     0.000     0.000    1.98    0.00    0.00      0   -9.90   -9.00
    28     5  1996    62    4     0.000     0.000     0.000     0.000     0.000    2.00    0.00    0.00      0   -9.90   -9.00
    29     5  1996    63    4     0.000     0.000     0.000     0.000     0.000    2.02    0.00    0.00      0   -9.90   -9.00
    30     5  1996    64    4     0.000     0.000     0.000     0.000     0.000    2.05    0.00    0.00      0   -9.90   -9.00
    31     5  1996    65    4     0.000     0.000     0.000     0.000     0.000    2.08    0.00    0.00      0   -9.90   -9.00
     1     6  1996    66    4     0.000     0.000     0.000     0.000     0.000    2.10    0.00    0.00      0   -9.90   -9.00
     2     6  1996    67    4     0.000     0.000     0.000     0.000     0.000    2.12    0.00    0.00      0   -9.90   -9.00
     3     6  1996    68    4     0.000     0.000     0.000     0.000     0.000    2.15    0.00    0.00      0   -9.90   -9.00
     4     6  1996    69    4     0.000     0.000     0.000     0.000     0.000    2.17    0.00    0.00      0   -9.90   -9.00
     5     6  1996    70    4     0.000     0.000     0.000     0.000     0.000    2.19    0.00    0.00      0   -9.90   -9.00
     6     6  1996    71    4     0.000     0.000     0.000     0.000     0.000    2.22    0.00    0.00      0   -9.90   -9.00
     7     6  1996    72    4     0.000     0.000     0.000     0.000     0.000    2.24    0.00    0.00      0   -9.90   -9.00
     8     6  1996    73    4     0.000     0.000     0.000     0.000     0.000    2.26    0.00    0.00      0   -9.90   -9.00
     9     6  1996    74    4     0.000     0.000     0.000     0.000     0.000    2.28    0.00    0.00      0   -9.90   -9.00
    10     6  1996    75    4     0.000     0.000     0.000     0.000     0.000    2.30    0.00    0.00      0   -9.90   -9.00
    11     6  1996    76    4     0.000     0.000     0.000     0.000     0.000    2.30    0.00    0.00      0   -9.90   -9.00
    12     6  1996    77    4     0.000     0.000     0.000     0.000     0.000    2.30    0.00    0.00      0   -9.90   -9.00
    13     6  1996    78    4     0.000     0.000     0.000     0.000     0.000    2.30    0.00    0.00      0   -9.90   -9.00
    14     6  1996    79    4     0.000     0.000     0.000     0.000     0.000    2.30    0.00    0.00      0   -9.90   -9.00
    15     6  1996    80    4     0.000     0.000     0.000     0.000     0.000    2.30    0.00    0.00      0   -9.90   -9.00
    16     6  1996    81    4     0.000     0.000     0.000     0.000     0.000    2.30    0.00    0.00      0   -9.90   -9.00
    17     6  1996    82    4     0.000     0.000     0.000     0.000     0.000    2.30    0.00    0.00      0   -9.90   -9.00
    18     6  1996    83    4     0.000     0.000     0.000     0.000     0.000    2.30    0.00    0.00      0   -9.90   -9.00
    19     6  1996    84    4     0.000     0.000     0.000     0.000     0.000    2.30    0.00    0.00      0   -9.90   -9.00
    20     6  1996    85    4     0.000     0.000     0.000     0.000     0.000    2.30    0.00    0.00      0   -9.90   -9.00
    21     6  1996    86    4     0.000     0.000     0.000     0.000     0.000    2.30    0.00    0.00      0   -9.90   -9.00
    22     6  1996    87    4     0.000     0.000     0.000     0.000     0.000    2.30    0.00    0.00      0   -9.90   -9.00
    23     6  1996    88    4     0.000     0.000     0.000     0.000     0.000    2.30    0.00    0.00      0   -9.90   -9.00
    24     6  1996    89    4     0.000     0.000     0.000     0.000     0.000    2.30    0.00    0.00      0   -9.90   -9.00
    25     6  1996    90    4     0.000     0.000     0.000     0.000     0.000    2.30    0.00    0.00      0   -9.90   -9.00
    26     6  1996    91    4     0.000     0.000     0.000     0.000     0.000    2.30    0.00    0.00      0   -9.90   -9.00

Legend

DAP          : Days after planting
Stage        : 0: before/after planting
Stage        : 1: emergence or transplant recovery
Stage        : 2: vegetative stage
Stage        : 3: flowering
Stage        : 4: yield formation and ripening
SaltIn       : Salt infiltrated in the soil profile
SaltOut      : Salt drained out of the soil profile
SaltUp       : Salt moved upward from the groundwater table
SaltTot      : Salt content in the total soil profile (layer: 0.00 - 2.30 m)
SaltZ        : Salt content in the effective root zone
Z            : Effective rooting depth
ECe          : Electrical conductivity of the saturated soil-paste extract from the root zone
ECsw         : Electrical conductivity of the soil water in the root zone
StSalt       : Salinity stress
Zgwt         : Depth of the groundwater table (-9.90 if absent)
ECgw         : Electrical conductivity of the groundwater
